%nprocshared=32
%mem=16GB
%chk=/home1/mohantamk/work/cluster/2cu12cr/19cu/3ip/1neu/a.chk
#p ub3lyp/gen pseudo=read scf=qc

Title Card Required

0 2
 Cu                 0.00005800   -0.00030500   -0.00010600
 Cu                 0.48356800    0.67239600   -2.01090800
 Cu                -2.11207900   -0.09847400    0.51086400
 Cu                 1.35695900    0.61736900    1.58363000
 Cu                -0.86533300   -1.98752300    0.18037700
 Cu                -0.48408300   -0.67087400    2.01108900
 Cu                -1.27821500    1.54447900   -0.84289500
 Cu                 2.11211500    0.09785200   -0.51091200
 Cu                 1.27789400   -1.54483300    0.84328100
 Cu                 0.73866400   -1.51099400   -1.37898700
 Cu                -1.35684100   -0.61761700   -1.58364100
 Cu                 0.86578400    1.98710800   -0.18020600
 Cu                -0.73849000    1.51141600    1.37841500

!----------------------------------------------------------------------
! Basis Set Exchange
! Version v0.9.1
! https://www.basissetexchange.org
!----------------------------------------------------------------------
!   Basis set: def2-TZVP
! Description: def2-TZVP
!        Role: orbital
!     Version: 1  (Data from Turbomole 7.3)
!----------------------------------------------------------------------
Cu     0
S    8   1.00
 377518.7992300              0.22811766128D-03
  56589.9843110              0.17688035931D-02
  12878.7117060              0.91993460227D-02
   3645.3752143              0.37411016434D-01
   1187.0072945              0.12189873737
    426.46421902             0.28983900714
    165.70660164             0.41531872174
     65.598942707            0.21905799287
S    4   1.00
    414.41265811            -0.24682525053D-01
    128.32056039            -0.11716827406
     20.622089750            0.55301315941
      8.7821226045           0.52242718609
S    2   1.00
     13.741372006           -0.22736061821
      2.2431246833           0.71761210873
S    1   1.00
      0.89370549079          1.0000000
S    1   1.00
      0.10836699534          1.0000000
S    1   1.00
      0.38806178058D-01      1.0000000
P    6   1.00
   2034.7596692              0.23524822298D-02
    481.90468106             0.19134070751D-01
    154.67482963             0.90171105278D-01
     57.740576969            0.26063284735
     23.099052811            0.42093485770
      9.3882478591           0.24344615121
P    3   1.00
     37.596171210           -0.28991094530D-01
      5.1240690810           0.54919083831
      2.0119996085           0.93793330488
P    1   1.00
      0.73860686002          1.0000000
P    1   1.00
      0.1550650              1.0000000
D    4   1.00
     74.129460637            0.14363216676D-01
     21.359842587            0.86628177096D-01
      7.4995240537           0.25631430541
      2.7601394169           0.40374062368
D    1   1.00
      0.95362061236           .39427042447
D    1   1.00
      0.28420862520           .23091146816
D    1   1.00
      0.0850000              1.0000000
F    1   1.00
      2.2330000              1.0000000
****


